12

C 1.72912000 -0.24671100 -0.29477200
H 1.93045500 -1.16850100 0.26445300
H 2.64067000 0.36131600 -0.27516600
H 1.52748900 -0.52645300 -1.33468800
C 0.54024100 0.52076200 0.30821500
H 0.36641200 1.44434700 -0.25843800
H 0.80108500 0.82644100 1.33267200
C -0.72346600 -0.29578800 0.34056600
H -0.67271200 -1.22249000 0.91627200
C -1.86152200 0.01767900 -0.27966600
H -2.74073300 -0.61880600 -0.22339000
H -1.95890400 0.92849300 -0.86777500
