14

C -2.82492800 -0.24961500 -0.35501300
H -2.70352400 -1.00796300 -1.12619300
H -3.82723300 0.14755700 -0.21858400
C -1.79762000 0.16336100 0.38799300
H -1.96922200 0.92635600 1.15012200
C -0.38362400 -0.33395100 0.26300500
H -0.32729100 -1.13491000 -0.48255200
H -0.05277700 -0.77621100 1.21248400
C 0.59940800 0.78301200 -0.11518500
H 0.55076400 1.62083300 0.59908100
H 0.34021500 1.22840000 -1.08795600
C 2.04139600 0.33402000 -0.18279300
H 2.76419800 1.12965900 -0.47635000
O 2.42713500 -0.78933500 0.05523900


