14

C 2.20596400 0.28111200 -0.00001200
C 0.79890000 0.86333400 0.00001100
C -0.32448800 -0.18363000 0.00000200
C -2.82846100 -0.54517100 0.00000500
C -1.73594100 0.46727100 -0.00001300
O 2.52772500 -0.86476100 0.00000000
H 0.73631300 1.52709500 -0.87350800
H 0.73633600 1.52704800 0.87356800
H -0.21734100 -0.83119000 0.87772800
H -0.21732500 -0.83119500 -0.87771800
H -3.15936500 -1.00354800 0.92726200
H -3.15938000 -1.00356800 -0.92723600
H -1.81844000 1.11795600 -0.88212500
H -1.81844400 1.11799200 0.88207400