4
Coordinates from ORCA-job CHBr2_opt
  C   -1.77399412275618      0.20078828875552     -0.17813236839154
  Br  0.03810510543984     -0.15255846346573     -0.24866612425888
  Br  -3.00827611085128     -1.16541612538835     -0.33105328990236
  H   -2.09388487183238      1.18832630009856     -0.47681821744722
