5
Coordinates from ORCA-job iso-CHBr3_opt_new
  C   -1.81133389739107      0.16214370714410     -0.16416578010814
  Br  -0.00842834946733     -0.19945223752654     -0.44077700387559
  Br  -2.99944507706069     -1.07038186234158      0.33547822294864
  H   -2.18024695763313      1.04465933387400     -0.66580204931812
  Br  -4.23074571844775     -2.89050894114998     -1.24004338964678
